Version 4
SHEET 1 2716 808
WIRE -320 -112 -1072 -112
WIRE 32 -112 -320 -112
WIRE 352 -112 32 -112
WIRE 688 -112 352 -112
WIRE 1008 -112 688 -112
WIRE -624 -32 -800 -32
WIRE -224 0 -272 0
WIRE -480 32 -592 32
WIRE -16 32 -32 32
WIRE 1008 32 1008 -112
WIRE -624 48 -624 -32
WIRE -320 48 -320 -112
WIRE 32 48 32 -112
WIRE 352 48 352 -112
WIRE 688 48 688 -112
WIRE 144 96 -32 96
WIRE -480 112 -480 32
WIRE -800 160 -800 -32
WIRE -496 160 -528 160
WIRE -480 160 -496 160
WIRE -368 160 -400 160
WIRE -848 176 -992 176
WIRE -848 224 -928 224
WIRE -320 224 -320 128
WIRE 32 224 32 128
WIRE 352 224 352 128
WIRE 688 224 688 128
WIRE 1008 224 1008 112
WIRE -1072 304 -1072 -112
WIRE -928 304 -928 224
WIRE -624 304 -624 128
WIRE -528 304 -528 160
WIRE -528 304 -624 304
WIRE -368 304 -368 160
WIRE -16 304 -16 32
WIRE 192 304 176 304
WIRE 304 304 272 304
WIRE 528 304 480 304
WIRE 640 304 608 304
WIRE 960 304 912 304
WIRE -800 320 -800 240
WIRE -480 352 -496 352
WIRE -272 352 -272 0
WIRE -144 352 -272 352
WIRE 544 352 528 352
WIRE 848 352 816 352
WIRE -624 368 -624 304
WIRE -528 448 -528 304
WIRE 176 448 176 304
WIRE 176 448 -528 448
WIRE 480 448 480 304
WIRE 480 448 176 448
WIRE 832 448 832 304
WIRE 832 448 480 448
WIRE -592 480 -592 32
WIRE -496 480 -592 480
WIRE -496 512 -496 480
WIRE -144 512 -144 352
WIRE 208 512 208 352
WIRE 528 512 528 352
WIRE 816 528 816 352
WIRE -1072 704 -1072 384
WIRE -992 704 -992 176
WIRE -992 704 -1072 704
WIRE -928 704 -928 384
WIRE -928 704 -992 704
WIRE -800 704 -800 400
WIRE -800 704 -928 704
WIRE -624 704 -624 448
WIRE -624 704 -800 704
WIRE -496 704 -496 592
WIRE -496 704 -624 704
WIRE -320 704 -320 320
WIRE -320 704 -496 704
WIRE -144 704 -144 592
WIRE -144 704 -320 704
WIRE -64 704 -64 208
WIRE -64 704 -144 704
WIRE 32 704 32 320
WIRE 32 704 -64 704
WIRE 144 704 144 96
WIRE 144 704 32 704
WIRE 208 704 208 592
WIRE 208 704 144 704
WIRE 256 704 256 352
WIRE 256 704 208 704
WIRE 352 704 352 320
WIRE 352 704 256 704
WIRE 528 704 528 592
WIRE 528 704 352 704
WIRE 592 704 592 352
WIRE 592 704 528 704
WIRE 688 704 688 320
WIRE 688 704 592 704
WIRE 816 704 816 608
WIRE 816 704 688 704
WIRE 896 704 896 352
WIRE 896 704 816 704
WIRE 1008 704 1008 320
WIRE 1008 704 896 704
WIRE 144 768 144 704
FLAG 144 768 0
SYMBOL voltage -800 304 R0
WINDOW 123 0 0 Left 0
WINDOW 39 0 0 Left 0
SYMATTR InstName V1
SYMATTR Value 3.6
SYMBOL res -640 32 R0
SYMATTR InstName R1
SYMATTR Value 1
SYMBOL res -640 352 R0
SYMATTR InstName R2
SYMATTR Value 3.3
SYMBOL nmos -16 224 R0
SYMATTR InstName M1
SYMBOL nmos 304 224 R0
SYMATTR InstName M2
SYMBOL nmos 640 224 R0
SYMATTR InstName M3
SYMBOL nmos 960 224 R0
SYMATTR InstName M4
SYMBOL nmos -368 224 R0
SYMATTR InstName M5
SYMBOL voltage -1072 288 R0
WINDOW 123 0 0 Left 0
WINDOW 39 0 0 Left 0
SYMATTR InstName V2
SYMATTR Value 14.8
SYMBOL sw -800 144 R0
SYMATTR InstName S1
SYMBOL sw 288 304 M270
SYMATTR InstName S3
SYMBOL sw 624 304 M270
SYMATTR InstName S4
SYMBOL sw 928 304 M270
SYMATTR InstName S5
SYMBOL voltage -928 288 R0
WINDOW 3 24 96 Invisible 2
WINDOW 123 0 0 Left 0
WINDOW 39 0 0 Left 0
SYMATTR Value PULSE(0 5 10 1n 1n 5 10 1)
SYMATTR InstName V3
SYMBOL voltage -496 496 R0
WINDOW 3 24 96 Invisible 2
WINDOW 123 0 0 Left 0
WINDOW 39 0 0 Left 0
SYMATTR Value PULSE(0 -5 0 1n 1n 4 20 1)
SYMATTR InstName V4
SYMBOL voltage -144 496 R0
WINDOW 3 24 96 Invisible 2
WINDOW 123 0 0 Left 0
WINDOW 39 0 0 Left 0
SYMATTR Value PULSE(0 2.7 0 1n 1n 30 10 1)
SYMATTR InstName V5
SYMBOL voltage 208 496 R0
WINDOW 3 24 96 Invisible 2
WINDOW 123 0 0 Left 0
WINDOW 39 0 0 Left 0
SYMATTR Value PULSE(0 5 12 1n 1n 30 20 1)
SYMATTR InstName V6
SYMBOL voltage 528 496 R0
WINDOW 3 24 96 Invisible 2
WINDOW 123 0 0 Left 0
WINDOW 39 0 0 Left 0
SYMATTR Value PULSE(0 5 18 1n 1n 30 10 1)
SYMATTR InstName V7
SYMBOL voltage 816 512 R0
WINDOW 3 24 96 Invisible 2
WINDOW 123 0 0 Left 0
WINDOW 39 0 0 Left 0
SYMATTR Value PULSE(0 5 24 1n 1n 30 10 1)
SYMATTR InstName V8
SYMBOL res -336 32 R0
SYMATTR InstName R3
SYMATTR Value 10k
SYMBOL res 16 32 R0
SYMATTR InstName R4
SYMATTR Value 1
SYMBOL res 336 32 R0
SYMATTR InstName R5
SYMATTR Value 1
SYMBOL res 672 32 R0
SYMATTR InstName R6
SYMATTR Value 1
SYMBOL res 992 16 R0
SYMATTR InstName R7
SYMATTR Value 1
SYMBOL Switches\\ADG1633 -128 48 R0
SYMATTR InstName U1
SYMBOL pmos -400 112 R90
SYMATTR InstName M6
SYMATTR Value AO3423
TEXT -1000 -200 Left 2 !.model MD D IS=5.54492e-16 RS=0.0100362 N=0.839457 BV=100 +IBV=0.00025 EG=1.2 XTI=2.86651 TT=9.23639e-06 +CJO=4.16691e-10 VJ=0.5 M=0.449578 FC=0.5 RDS 3 1 4e+06 RD 9 1 0.0502902 RG 2 7 4.82531 D2 4 5 MD1 * Default values used in MD1: * RS=0 EG=1.11 XTI=3.0 TT=0 * BV=infinite IBV=1mA
TEXT -1000 -240 Left 2 !.model SW SW(Ron=1p Roff=100G Vt=.5 Vh=0)
TEXT -1104 792 Left 2 !.tran 36
