Version 4
SHEET 1 2792 680
WIRE -256 -528 -1008 -528
WIRE 96 -528 -256 -528
WIRE 416 -528 96 -528
WIRE 752 -528 416 -528
WIRE 1072 -528 752 -528
WIRE -560 -448 -736 -448
WIRE -256 -448 -256 -528
WIRE 96 -448 96 -528
WIRE 416 -432 416 -528
WIRE 752 -432 752 -528
WIRE 1072 -432 1072 -528
WIRE -560 -368 -560 -448
WIRE -256 -320 -256 -368
WIRE 96 -320 96 -368
WIRE 416 -320 416 -352
WIRE 752 -320 752 -352
WIRE 1072 -304 1072 -352
WIRE -736 -256 -736 -448
WIRE -784 -240 -928 -240
WIRE -784 -192 -864 -192
WIRE -256 -192 -256 -240
WIRE 96 -192 96 -240
WIRE 416 -192 416 -240
WIRE 752 -192 752 -240
WIRE 1072 -192 1072 -224
WIRE -1008 -112 -1008 -528
WIRE -864 -112 -864 -192
WIRE -560 -112 -560 -288
WIRE -464 -112 -560 -112
WIRE -432 -112 -464 -112
WIRE -304 -112 -352 -112
WIRE -80 -112 -112 -112
WIRE 48 -112 0 -112
WIRE 256 -112 240 -112
WIRE 368 -112 336 -112
WIRE 592 -112 544 -112
WIRE 704 -112 672 -112
WIRE 1024 -112 976 -112
WIRE -736 -96 -736 -176
WIRE -416 -64 -432 -64
WIRE -64 -64 -80 -64
WIRE 608 -64 592 -64
WIRE 912 -64 880 -64
WIRE -560 -48 -560 -112
WIRE -464 32 -464 -112
WIRE -112 32 -112 -112
WIRE -112 32 -464 32
WIRE 240 32 240 -112
WIRE 240 32 -112 32
WIRE 544 32 544 -112
WIRE 544 32 240 32
WIRE 896 32 896 -112
WIRE 896 32 544 32
WIRE -432 96 -432 -64
WIRE -80 96 -80 -64
WIRE 272 96 272 -64
WIRE 592 96 592 -64
WIRE 880 112 880 -64
WIRE -1008 288 -1008 -32
WIRE -928 288 -928 -240
WIRE -928 288 -1008 288
WIRE -864 288 -864 -32
WIRE -864 288 -928 288
WIRE -736 288 -736 -16
WIRE -736 288 -864 288
WIRE -560 288 -560 32
WIRE -560 288 -736 288
WIRE -432 288 -432 176
WIRE -432 288 -560 288
WIRE -368 288 -368 -64
WIRE -368 288 -432 288
WIRE -256 288 -256 -96
WIRE -256 288 -368 288
WIRE -80 288 -80 176
WIRE -80 288 -256 288
WIRE -16 288 -16 -64
WIRE -16 288 -80 288
WIRE 96 288 96 -96
WIRE 96 288 -16 288
WIRE 208 288 96 288
WIRE 272 288 272 176
WIRE 272 288 208 288
WIRE 320 288 320 -64
WIRE 320 288 272 288
WIRE 416 288 416 -96
WIRE 416 288 320 288
WIRE 592 288 592 176
WIRE 592 288 416 288
WIRE 656 288 656 -64
WIRE 656 288 592 288
WIRE 752 288 752 -96
WIRE 752 288 656 288
WIRE 880 288 880 192
WIRE 880 288 752 288
WIRE 960 288 960 -64
WIRE 960 288 880 288
WIRE 1072 288 1072 -96
WIRE 1072 288 960 288
WIRE 208 352 208 288
FLAG 208 352 0
SYMBOL voltage -736 -112 R0
WINDOW 123 0 0 Left 0
WINDOW 39 0 0 Left 0
SYMATTR InstName V1
SYMATTR Value 3.6
SYMBOL res -576 -384 R0
SYMATTR InstName R1
SYMATTR Value 1
SYMBOL res -576 -64 R0
SYMATTR InstName R2
SYMATTR Value 3.3
SYMBOL nmos 48 -192 R0
SYMATTR InstName M2
SYMBOL nmos 368 -192 R0
SYMATTR InstName M3
SYMBOL nmos 704 -192 R0
SYMATTR InstName M4
SYMBOL nmos 1024 -192 R0
SYMATTR InstName M5
SYMBOL nmos -304 -192 R0
SYMATTR InstName M1
SYMBOL voltage -1008 -128 R0
WINDOW 123 0 0 Left 0
WINDOW 39 0 0 Left 0
SYMATTR InstName V2
SYMATTR Value 14.8
SYMBOL sw -736 -272 R0
SYMATTR InstName S1
SYMBOL sw -336 -112 M270
SYMATTR InstName S2
SYMBOL sw 16 -112 M270
SYMATTR InstName S3
SYMBOL sw 352 -112 M270
SYMATTR InstName S4
SYMBOL sw 688 -112 M270
SYMATTR InstName S5
SYMBOL sw 992 -112 M270
SYMATTR InstName S6
SYMBOL voltage -864 -128 R0
WINDOW 3 24 96 Invisible 2
WINDOW 123 0 0 Left 0
WINDOW 39 0 0 Left 0
SYMATTR Value PULSE(0 5 10 1n 1n 5 10 1)
SYMATTR InstName V3
SYMBOL voltage -432 80 R0
WINDOW 3 24 96 Invisible 2
WINDOW 123 0 0 Left 0
WINDOW 39 0 0 Left 0
SYMATTR Value PULSE(0 5 0 1n 1n 4 20 1)
SYMATTR InstName V4
SYMBOL voltage -80 80 R0
WINDOW 3 24 96 Invisible 2
WINDOW 123 0 0 Left 0
WINDOW 39 0 0 Left 0
SYMATTR Value PULSE(0 5 0 1n 1n 30 10 1)
SYMATTR InstName V5
SYMBOL voltage 272 80 R0
WINDOW 3 24 96 Invisible 2
WINDOW 123 0 0 Left 0
WINDOW 39 0 0 Left 0
SYMATTR Value PULSE(0 5 12 1n 1n 30 20 1)
SYMATTR InstName V6
SYMBOL voltage 592 80 R0
WINDOW 3 24 96 Invisible 2
WINDOW 123 0 0 Left 0
WINDOW 39 0 0 Left 0
SYMATTR Value PULSE(0 5 18 1n 1n 30 10 1)
SYMATTR InstName V7
SYMBOL voltage 880 96 R0
WINDOW 3 24 96 Invisible 2
WINDOW 123 0 0 Left 0
WINDOW 39 0 0 Left 0
SYMATTR Value PULSE(0 5 24 1n 1n 30 10 1)
SYMATTR InstName V8
SYMBOL res -272 -464 R0
SYMATTR InstName R3
SYMATTR Value 10k
SYMBOL res 80 -464 R0
SYMATTR InstName R4
SYMATTR Value 1
SYMBOL res 400 -448 R0
SYMATTR InstName R5
SYMATTR Value 1
SYMBOL res 736 -448 R0
SYMATTR InstName R6
SYMATTR Value 1
SYMBOL res 1056 -448 R0
SYMATTR InstName R7
SYMATTR Value 1
SYMBOL load2 -256 -320 R0
WINDOW 123 0 0 Left 0
WINDOW 39 0 0 Left 0
SYMATTR InstName I1
SYMATTR Value 3
SYMBOL load2 96 -320 R0
WINDOW 123 0 0 Left 0
WINDOW 39 0 0 Left 0
SYMATTR InstName I2
SYMATTR Value 3
SYMBOL load2 416 -320 R0
WINDOW 123 0 0 Left 0
WINDOW 39 0 0 Left 0
SYMATTR InstName I3
SYMATTR Value 3
SYMBOL load2 752 -320 R0
WINDOW 123 0 0 Left 0
WINDOW 39 0 0 Left 0
SYMATTR InstName I4
SYMATTR Value 3
SYMBOL load2 1072 -304 R0
WINDOW 123 0 0 Left 0
WINDOW 39 0 0 Left 0
SYMATTR InstName I5
SYMATTR Value 3
TEXT -936 -616 Left 2 !.model MD D IS=5.54492e-16 RS=0.0100362 N=0.839457 BV=100 +IBV=0.00025 EG=1.2 XTI=2.86651 TT=9.23639e-06 +CJO=4.16691e-10 VJ=0.5 M=0.449578 FC=0.5 RDS 3 1 4e+06 RD 9 1 0.0502902 RG 2 7 4.82531 D2 4 5 MD1 * Default values used in MD1: * RS=0 EG=1.11 XTI=3.0 TT=0 * BV=infinite IBV=1mA
TEXT -936 -656 Left 2 !.model SW SW(Ron=1p Roff=100G Vt=.5 Vh=0)
TEXT -1040 376 Left 2 !.tran 36
